This is a text file.
New line.
New line.